Version 4
SHEET 1 1924 680
WIRE 832 -160 688 -160
WIRE 688 -96 688 -160
WIRE 720 -96 688 -96
WIRE 832 -80 832 -160
WIRE 832 -80 784 -80
WIRE 912 -80 832 -80
WIRE 1056 -80 992 -80
WIRE 1136 -80 1056 -80
WIRE 1280 -80 1216 -80
WIRE 448 -64 400 -64
WIRE 576 -64 528 -64
WIRE 720 -64 576 -64
WIRE 1056 32 1056 -80
WIRE 1136 32 1056 32
WIRE 1280 48 1280 -80
WIRE 1280 48 1200 48
WIRE 1408 48 1360 48
WIRE 1536 48 1408 48
WIRE 1552 48 1536 48
WIRE 1136 64 1056 64
WIRE 1056 128 1056 64
FLAG -416 -48 Vpwm
FLAG -416 32 0
FLAG -80 0 0
FLAG -80 -80 5V
FLAG 752 -112 5V
FLAG 1056 128 0
FLAG 112 -80 -5V
FLAG 112 0 0
FLAG 1168 16 5V
FLAG 752 -48 -5V
FLAG 1168 80 -5V
FLAG 400 -64 Vpwm
FLAG 1408 112 0
FLAG 1536 48 Vout
FLAG 576 0 0
SYMBOL voltage -416 -64 R0
WINDOW 123 0 0 Left 2
WINDOW 39 0 0 Left 2
SYMATTR InstName V1
SYMATTR Value PULSE(0 5 1p 1p 1p 1m 2m)
SYMBOL voltage -80 -96 R0
WINDOW 123 0 0 Left 2
WINDOW 39 0 0 Left 2
SYMATTR InstName V2
SYMATTR Value 5V
SYMBOL res 1008 -96 R90
WINDOW 0 0 56 VBottom 2
WINDOW 3 32 56 VTop 2
SYMATTR InstName R1
SYMATTR Value 1k
SYMBOL res 1232 -96 R90
WINDOW 0 0 56 VBottom 2
WINDOW 3 32 56 VTop 2
SYMATTR InstName R4
SYMATTR Value 1k
SYMBOL voltage 112 -96 R0
WINDOW 123 0 0 Left 2
WINDOW 39 0 0 Left 2
SYMATTR InstName V3
SYMATTR Value -5V
SYMBOL res 1376 32 R90
WINDOW 0 0 56 VBottom 2
WINDOW 3 32 56 VTop 2
SYMATTR InstName R3
SYMATTR Value 10k
SYMBOL cap 1392 48 R0
SYMATTR InstName C2
SYMATTR Value 1µ
SYMBOL Opamps\\LT1457 752 -80 R0
SYMATTR InstName U3
SYMBOL Opamps\\LT1457 1168 48 R0
SYMATTR InstName U4
SYMBOL res 544 -80 R90
WINDOW 0 0 56 VBottom 2
WINDOW 3 32 56 VTop 2
SYMATTR InstName R2
SYMATTR Value 10k
SYMBOL cap 560 -64 R0
SYMATTR InstName C1
SYMATTR Value 1µ
TEXT 62 -192 Left 2 !.tran 300m
